Results/no_lec/powerflow/line_summaries.csv
,active_line_losses_mw,reactive_line_losses_mvar,apparent_line_losses_mva
0,0.04679976348138168,-0.4152930949364796,0.47253932456653225
1,0.039822048662938404,-0.42106979130638744,0.4675525691631475
2,0.0391141114636015,-0.42168312268182734,0.46702026271836194
3,0.037777636901719765,-0.42285875649892884,0.46613912884681236
4,0.03659298484251074,-0.423889390303009,0.4654152401751422
5,0.034933600597824715,-0.4252793550199148,0.46434072990133624
6,0.03588452978153532,-0.4244654514233816,0.4650477733977857
7,0.039285809796229934,-0.42163976303697626,0.4674464062342289
8,0.039111923500021795,-0.42180630709771216,0.46734066500725635
9,0.0412968690045485,-0.4199724637915076,0.4688879939648793
10,0.049348341213766855,-0.413335898231226,0.47456581232945627
11,0.05148923661988469,-0.41151961132057585,0.4760659819895933
12,0.05605854761599151,-0.40781725906722965,0.4794014942584129
13,0.05279417725771457,-0.41040435607631226,0.476988457886809
14,0.054501853292891464,-0.4089793594151683,0.4781060489330776
15,0.05845649970496217,-0.40581132989932595,0.481088893931705
16,0.0631804504305656,-0.4020511032541724,0.48494174098344706
17,0.06667516837574436,-0.3992616781684318,0.4876208720941666
18,0.06023273266187695,-0.4043875931525591,0.4824984526128535
19,0.06208801369304587,-0.4028760186348707,0.483958158531793
20,0.0645839154807089,-0.40088578776948514,0.4858673302682938
21,0.05997709576120092,-0.4046317357047322,0.48248825621599317
22,0.053448650294092695,-0.4098877235630644,0.47748129285147867
23,0.046248120125327405,-0.4158137552383441,0.47234368883688693
24,0.0417747790040289,-0.419525279899431,0.46925806655781566
25,0.038779925427076964,-0.4220047338705115,0.4671075666840255
26,0.0343540365961824,-0.42576424090431236,0.4641624948556732
27,0.034373609649379126,-0.42571581861624036,0.4640672903425508
28,0.038056024372014434,-0.42261845380238494,0.46669705891466406
29,0.03983642157100785,-0.4211504571002727,0.4678078663942666
30,0.04976172279504469,-0.4129219111794512,0.4747539161753458
31,0.05904323018163557,-0.40536097978986174,0.4815585186327045
32,0.05732457277589862,-0.4067248820137022,0.48020950717044747
33,0.06356931354492211,-0.4017730979145452,0.4851945878163537
34,0.061860957736683694,-0.4031324679986048,0.4836881979605356
35,0.06208109001271039,-0.4029686197131148,0.48384525589407706
36,0.0624712831062544,-0.4026831773333059,0.48424998811059516
37,0.06352555555315587,-0.4018049067692195,0.4848731032068454
38,0.06274844970314923,-0.40245358689541877,0.48446039373428945
39,0.06509826161226842,-0.4004796672049032,0.48601452607927126
40,0.07496737350447787,-0.3924945457093665,0.49353206610282485
41,0.07656636062255229,-0.39118540846833905,0.494568559154633
42,0.07289834021243999,-0.3941731681768508,0.4918098574467165
43,0.07264573844753253,-0.39427636593331716,0.4912949342247367
44,0.07938644805648579,-0.3890064049236398,0.49688444009050287
45,0.07352658747830304,-0.3936002612863,0.4920533435035532
46,0.06515339317441177,-0.4002569470224184,0.48555069141166757
47,0.05651252799950027,-0.4072592778447604,0.47923859168244476
48,0.05219061841075731,-0.4108281583263688,0.47623811158885404
49,0.04633934217166705,-0.415621988868663,0.47195497786053836
50,0.046343626765710626,-0.4156451741527001,0.4719347807360836
51,0.04428057921970321,-0.4173569069816726,0.47052793934706466
52,0.04522318516561647,-0.4165661109763421,0.4712265146563268
53,0.04675032248889221,-0.4153188873308212,0.472216967922348
54,0.058362979650435055,-0.40586791098519337,0.48082369969536093
55,0.0723971683926816,-0.3946187502401352,0.4916610136609769
56,0.06948219319219709,-0.3970017246712615,0.4896843421234718
57,0.06664139658604423,-0.3992741901983582,0.487557411406969
58,0.06431400035330793,-0.4011241625205934,0.4855486992007135
59,0.06268246095569362,-0.4023437320010925,0.4842050756937111
60,0.06114511295710218,-0.40364343851937995,0.4832588654518658
61,0.05792360779526059,-0.4061677717057167,0.4805578882172057
62,0.05963069143817837,-0.4047883664551525,0.4817310312453361
63,0.06642059241932981,-0.39937393655125997,0.48700399304354275
64,0.0722618673294769,-0.3946059485390493,0.49124079412873184
65,0.07727194871237646,-0.39063641990380976,0.49516471627510356
66,0.07452188210091956,-0.3929302278744565,0.49310287656792284
67,0.07234299626806645,-0.3946396729980796,0.49142593287163616
68,0.07287963199378852,-0.3941943243893451,0.49185428585488156
69,0.06918303403255781,-0.39714624159566964,0.48894443708165725
70,0.060819161879859196,-0.4038746776303313,0.4827286309794866
71,0.05472915954020274,-0.40878969987576025,0.4781356112530655
72,0.049974640526983194,-0.4126407665592988,0.47456687697119565
73,0.04387490388440143,-0.41767345018137797,0.47022145700179685
74,0.0437676399887865,-0.41772044329408325,0.47010075403803553
75,0.04063578935446001,-0.4203192124799995,0.46787059061168923
76,0.041656712787299696,-0.4194690091422341,0.4684881941244904
77,0.04597242634314953,-0.4159184429805685,0.47160520185782234
78,0.056870837411503714,-0.4071190789839252,0.47971362766071846
79,0.07113098363721634,-0.3956612506868399,0.4906853924573795
80,0.0687289337806814,-0.3974900767262259,0.4886794180000036
81,0.06842034651741727,-0.3978170691904412,0.48887266890855396
82,0.07117502836145251,-0.3956754482703033,0.4911124103946304
83,0.06505687995255931,-0.4005595839437221,0.48624333762164296
84,0.06284853497857187,-0.402255197998565,0.4842994641438751
85,0.06160537896398041,-0.40324876033853424,0.4834000272898456
86,0.0633033664966289,-0.4018846241266367,0.4847394383772782
87,0.07076312921735509,-0.3959504146418511,0.49055860374805016
88,0.07636361921046782,-0.3914067628895348,0.4946559534288168
89,0.0848384831240924,-0.3848182835021841,0.5016517518368563
90,0.07767992554944458,-0.39040386421482554,0.49567484887931923
91,0.07027867252211879,-0.39617272336730247,0.48941193604497624
92,0.07212847142744808,-0.3947188071212257,0.4908878779034149
93,0.06778480956016081,-0.39819398414076207,0.48756017248067807
94,0.06352374000410986,-0.4016754186100744,0.48436356257183516
95,0.055075622117885206,-0.40851317992880126,0.4781238198058441
96,0.04774354145048926,-0.4145087053055425,0.47293566503313605
97,0.04449371076930268,-0.41718088600439257,0.4707215774983745
98,0.0420749273981566,-0.41922013502328426,0.46891048920080375
99,0.040203846852673704,-0.4207815456041269,0.4676319094148908
100,0.04053846949811539,-0.42047719596678546,0.46784002516158446
101,0.04558594456841316,-0.4163278420206672,0.47147444233910446
102,0.055598613730298736,-0.4081431222648197,0.47869198455279327
103,0.06649715946217047,-0.39927174898218426,0.48684916258130306
104,0.06809529431692209,-0.3980288221687097,0.4882607608026238
105,0.06606612365639053,-0.399710267751235,0.48692894910593637
106,0.06901179944324726,-0.39734782858195367,0.4892259395038895
107,0.06968419680471756,-0.39678232746092196,0.4896286907324544
108,0.06649468579975025,-0.3993096185926934,0.48696983261868443
109,0.06676932469098575,-0.3990855218505298,0.48732554415564877
110,0.0716310418018557,-0.3951494816839978,0.49107105336224416
111,0.07253441947390515,-0.39439270389243836,0.49163475552463237
112,0.08038728914653702,-0.38820069237463267,0.49780272169544754
113,0.07925472206597582,-0.3890400690047505,0.496692030966617
114,0.07446373149824093,-0.39277323534017716,0.4926492707919478
115,0.07438726601770991,-0.39275248286062936,0.49241053085111064
116,0.07098418300734972,-0.3955275659874976,0.4898185087370151
117,0.06534119619605651,-0.4000932700492756,0.4856997192460627
118,0.06361188467726714,-0.40157007550565677,0.484628221664756
119,0.06114744785184013,-0.40356327104268147,0.4829182547202411
120,0.049149528358777186,-0.4132461069891228,0.4738044747603018
121,0.048325069125943684,-0.4140463399721422,0.4734256787753478
122,0.046944297564902246,-0.4151096532134633,0.47239219370893415
123,0.046178891235665466,-0.4157717400071432,0.4719038098085528
124,0.045561001170674416,-0.41628679438742494,0.4713870708685733
125,0.0478989718301385,-0.4143891211519484,0.47311081908518327
126,0.05220328874147261,-0.4108502926023634,0.47626257436247205
127,0.055301933500852565,-0.40835958145983714,0.47849259345537964
128,0.05775382333386794,-0.4063261345585668,0.48022578924732057
129,0.0635507884043847,-0.4016671110774456,0.4846059950975835
130,0.07371358932619346,-0.393568096617652,0.4925866233981907
131,0.07664032622492412,-0.39110037896843386,0.49445433237226527
132,0.0822110958618842,-0.38674077254034733,0.49905398008601504
133,0.07755399407806868,-0.3904227427144337,0.49532398161438923
134,0.06885825590443553,-0.39725192734845644,0.4882242703269236
135,0.07718188928271945,-0.3907377126661095,0.4951522150769174
136,0.08307882366264085,-0.38603033890703353,0.4997503176634638
137,0.08445771995546787,-0.3849170020344666,0.5006855802361663
138,0.08244857887615864,-0.3863967636989234,0.49857526893835785
139,0.08008887541683157,-0.3882290023539132,0.49681496699116556
140,0.07768087367337877,-0.390286090530509,0.4952402279186838
141,0.07576641396337787,-0.3917403587987593,0.4935965350605502
142,0.07223130190159831,-0.39456317967546867,0.49095735304980664
143,0.06849860022208194,-0.3975892245994801,0.4881576533724622
144,0.06588406677461289,-0.39971878045913933,0.48625103804634745
145,0.06264698146877516,-0.40234320699167303,0.4838414233191295
146,0.06370166709140049,-0.40156123857591214,0.48488714608731903
147,0.058345800118005844,-0.4057838276145566,0.48056487127366065
148,0.06023943154938431,-0.4042685595289605,0.4820189680216333
149,0.06303961660236837,-0.40206859285865443,0.48432601520134627
150,0.06456734930805884,-0.4007761520724975,0.48530600052396083
151,0.06781402215079882,-0.39815984544699146,0.48779490042038764
152,0.0751591579593343,-0.39238036398322923,0.49376326288708733
153,0.08021130829077822,-0.3883090796470801,0.49747908096428883
154,0.08937142429677096,-0.38111797955842625,0.504825403399615
155,0.08888666109589999,-0.3814248881843071,0.5041906233855062
156,0.09058731341133859,-0.38013605909182563,0.5057745992309542
157,0.09417217547938905,-0.37736021500638306,0.5088656713323995
158,0.09409225800432502,-0.3774495923286527,0.5088556171314158
159,0.09152580579844513,-0.3793898268298813,0.5065485687470873
160,0.09061892738854532,-0.3800387517528109,0.5055212931082591
161,0.09415901601810706,-0.3773451366503722,0.5085633262652618
162,0.0912313805109304,-0.37948724641927123,0.5057701283453093
163,0.0895106503220055,-0.3809154665894337,0.5045486541436286
164,0.09185946334005801,-0.3792014440871563,0.5069775998039046
165,0.08096194802885337,-0.3877876428468447,0.4982561787847081
166,0.0683849755562119,-0.3977016876311764,0.48815512510867565
167,0.060673343300523846,-0.40389554214901713,0.48228884600288485
168,0.05554725624564534,-0.4081597829565683,0.47882363037804443
169,0.051372614268100227,-0.4115991626387548,0.4757804475603835
170,0.05010716738970551,-0.41263599993333167,0.4749441516742809
171,0.050081258872616816,-0.41262840905460907,0.47485877153439765
172,0.04903018282762642,-0.4134237738856628,0.47383603579494976
173,0.051986695672728594,-0.41109101943955073,0.4762173671327898
174,0.06356836541482966,-0.4017491319256568,0.4850024183563986
175,0.07705628984551637,-0.3909634879022839,0.4954533655940961
176,0.07985339195545775,-0.38873891170521374,0.4978332539934097
177,0.07304540566744898,-0.3941688970683555,0.49246443987192184
178,0.07466713797369398,-0.39295726657301444,0.49380619562103983
179,0.06628503026058308,-0.39952579539580335,0.4868611470739966
180,0.06482523361981515,-0.40066937563490473,0.4858295483988901
181,0.0610719649578004,-0.403679824600388,0.4831108176628746
182,0.06223515254869269,-0.4026888146226539,0.4837954443348032
183,0.06854339102309676,-0.3975425934654469,0.4883877776466701
184,0.08397870451661178,-0.3853243696657603,0.500642849312818
185,0.08815015754711739,-0.38206013463959293,0.5039372737873666
186,0.08015478117988559,-0.3881935119930697,0.4968653008486247
187,0.0860960928241478,-0.38349575784658557,0.5014509372301553
188,0.0839653163707446,-0.38523057136786415,0.4999803413531767
189,0.08552312613540552,-0.38398966462944734,0.5012632251400755
190,0.07841393520691353,-0.38968853488731375,0.4958638573712969
191,0.06852902904533946,-0.39762481464335775,0.4883035412384511
192,0.0586777679080676,-0.4055655962259815,0.4809927104689852
193,0.06074309808634122,-0.40391588578530735,0.48279565817259806
194,0.0597989040971923,-0.40472508494930587,0.4821197015709521
195,0.054116963888017,-0.4092566676865601,0.47755768148690636
196,0.054909351441678245,-0.4086772762866257,0.4782500220819731
197,0.060259160930158207,-0.40432388047149587,0.482255595553677
198,0.07388362415497668,-0.3934015955127336,0.492700772926407
199,0.08593123882550495,-0.38390330250948235,0.5024298133160711
...
